
#######################################################################
#
#                 Dummy cif
#
#######################################################################


data_111\(0\0\1)
_symmetry_cell_setting           triclinic
_symmetry_space_group_name_H-M   'P 1'
_symmetry_Int_Tables_number      1
_space_group_name_Hall           'P 1'
loop_
_symmetry_equiv_pos_site_id
_symmetry_equiv_pos_as_xyz
1 x,y,z
_cell_length_a                   #a#
_cell_length_b                   #b#
_cell_length_c                   #c#
_cell_angle_alpha                #alpha#
_cell_angle_beta                 #beta#
_cell_angle_gamma                #gamma
loop_
_atom_site_type_symbol
_atom_site_fract_x
_atom_site_fract_y
_atom_site_fract_z


# symbol X_coord Y_coord Z_coord # 

#END
